/*--------------------------------*- C++ -*----------------------------------*\
| =========                 |                                                 |
| \\      /  F ield         | OpenFOAM: The Open Source CFD Toolbox           |
|  \\    /   O peration     | Version:  2406                                  |
|   \\  /    A nd           | Website:  www.openfoam.com                      |
|    \\/     M anipulation  |                                                 |
\*---------------------------------------------------------------------------*/
FoamFile
{
    version     2.0;
    format      ascii;
    arch        "LSB;label=32;scalar=64";
    class       polyBoundaryMesh;
    location    "constant/polyMesh";
    object      boundary;
}
// * * * * * * * * * * * * * * * * * * * * * * * * * * * * * * * * * * * * * //

8
(
    FreestreamLeft
    {
        type            patch;
        nFaces          98;
        startFace       34482;
    }
    FreestreamTop
    {
        type            patch;
        nFaces          290;
        startFace       34580;
    }
    Inlet
    {
        type            patch;
        nFaces          0;
        startFace       34870;
    }
    Outlet
    {
        type            patch;
        nFaces          0;
        startFace       34870;
    }
    Wall
    {
        type            wall;
        inGroups        1(wall);
        nFaces          198;
        startFace       34870;
    }
    Wedge1
    {
        type            wedge;
        inGroups        1(wedge);
        nFaces          6974;
        startFace       35068;
    }
    Wedge2
    {
        type            wedge;
        inGroups        1(wedge);
        nFaces          6974;
        startFace       42042;
    }
    procBoundary2to1
    {
        type            processor;
        inGroups        1(processor);
        nFaces          190;
        startFace       49016;
        matchTolerance  0.0001;
        transform       unknown;
        myProcNo        2;
        neighbProcNo    1;
    }
)

// ************************************************************************* //
