/*--------------------------------*- C++ -*----------------------------------*\
| =========                 |                                                 |
| \\      /  F ield         | OpenFOAM: The Open Source CFD Toolbox           |
|  \\    /   O peration     | Version:  2406                                  |
|   \\  /    A nd           | Website:  www.openfoam.com                      |
|    \\/     M anipulation  |                                                 |
\*---------------------------------------------------------------------------*/
FoamFile
{
    version     2.0;
    format      ascii;
    arch        "LSB;label=32;scalar=64";
    class       polyBoundaryMesh;
    location    "constant/polyMesh";
    object      boundary;
}
// * * * * * * * * * * * * * * * * * * * * * * * * * * * * * * * * * * * * * //

5
(
    inlet
    {
        type            patch;
        nFaces          100;
        startFace       233090;
    }
    outlet
    {
        type            patch;
        nFaces          8100;
        startFace       233190;
    }
    freestreamInlet
    {
        type            patch;
        nFaces          8000;
        startFace       241290;
    }
    freestream
    {
        type            patch;
        nFaces          2000;
        startFace       249290;
    }
    frontback
    {
        type            empty;
        inGroups        1(empty);
        nFaces          1620;
        startFace       251290;
    }
)

// ************************************************************************* //
