/*--------------------------------*- C++ -*----------------------------------*\
| =========                 |                                                 |
| \\      /  F ield         | OpenFOAM: The Open Source CFD Toolbox           |
|  \\    /   O peration     | Version:  v2406                                 |
|   \\  /    A nd           | Website:  www.openfoam.com                      |
|    \\/     M anipulation  |                                                 |
\*---------------------------------------------------------------------------*/
FoamFile
{
version     2.0;
format      ascii;
class       dictionary;
object      blockMeshDict;
}
// * * * * * * * * * * * * * * * * * * * * * * * * * * * * * * * * * * * * * //

scale   0.001;

vertices
(
    (0 -40 0)
    (0 -40 1)
    (1000 -40 1)
    (1000 -40 0)
    (0 -39 0)
    (0 -39 1)
    (1000 -39 1)
    (1000 -39 0)
    (0 -38 0)
    (0 -38 1)
    (1000 -38 1)
    (1000 -38 0)
    (0 -37 0)
    (0 -37 1)
    (1000 -37 1)
    (1000 -37 0)
    (0 -36 0)
    (0 -36 1)
    (1000 -36 1)
    (1000 -36 0)
    (0 -35 0)
    (0 -35 1)
    (1000 -35 1)
    (1000 -35 0)
    (0 -34 0)
    (0 -34 1)
    (1000 -34 1)
    (1000 -34 0)
    (0 -33 0)
    (0 -33 1)
    (1000 -33 1)
    (1000 -33 0)
    (0 -32 0)
    (0 -32 1)
    (1000 -32 1)
    (1000 -32 0)
    (0 -31 0)
    (0 -31 1)
    (1000 -31 1)
    (1000 -31 0)
    (0 -30 0)
    (0 -30 1)
    (1000 -30 1)
    (1000 -30 0)
    (0 -29 0)
    (0 -29 1)
    (1000 -29 1)
    (1000 -29 0)
    (0 -28 0)
    (0 -28 1)
    (1000 -28 1)
    (1000 -28 0)
    (0 -27 0)
    (0 -27 1)
    (1000 -27 1)
    (1000 -27 0)
    (0 -26 0)
    (0 -26 1)
    (1000 -26 1)
    (1000 -26 0)
    (0 -25 0)
    (0 -25 1)
    (1000 -25 1)
    (1000 -25 0)
    (0 -24 0)
    (0 -24 1)
    (1000 -24 1)
    (1000 -24 0)
    (0 -23 0)
    (0 -23 1)
    (1000 -23 1)
    (1000 -23 0)
    (0 -22 0)
    (0 -22 1)
    (1000 -22 1)
    (1000 -22 0)
    (0 -21 0)
    (0 -21 1)
    (1000 -21 1)
    (1000 -21 0)
    (0 -20 0)
    (0 -20 1)
    (1000 -20 1)
    (1000 -20 0)
    (0 -19 0)
    (0 -19 1)
    (1000 -19 1)
    (1000 -19 0)
    (0 -18 0)
    (0 -18 1)
    (1000 -18 1)
    (1000 -18 0)
    (0 -17 0)
    (0 -17 1)
    (1000 -17 1)
    (1000 -17 0)
    (0 -16 0)
    (0 -16 1)
    (1000 -16 1)
    (1000 -16 0)
    (0 -15 0)
    (0 -15 1)
    (1000 -15 1)
    (1000 -15 0)
    (0 -14 0)
    (0 -14 1)
    (1000 -14 1)
    (1000 -14 0)
    (0 -13 0)
    (0 -13 1)
    (1000 -13 1)
    (1000 -13 0)
    (0 -12 0)
    (0 -12 1)
    (1000 -12 1)
    (1000 -12 0)
    (0 -11 0)
    (0 -11 1)
    (1000 -11 1)
    (1000 -11 0)
    (0 -10 0)
    (0 -10 1)
    (1000 -10 1)
    (1000 -10 0)
    (0 -9 0)
    (0 -9 1)
    (1000 -9 1)
    (1000 -9 0)
    (0 -8 0)
    (0 -8 1)
    (1000 -8 1)
    (1000 -8 0)
    (0 -7 0)
    (0 -7 1)
    (1000 -7 1)
    (1000 -7 0)
    (0 -6 0)
    (0 -6 1)
    (1000 -6 1)
    (1000 -6 0)
    (0 -5 0)
    (0 -5 1)
    (1000 -5 1)
    (1000 -5 0)
    (0 -4 0)
    (0 -4 1)
    (1000 -4 1)
    (1000 -4 0)
    (0 -3 0)
    (0 -3 1)
    (1000 -3 1)
    (1000 -3 0)
    (0 -2 0)
    (0 -2 1)
    (1000 -2 1)
    (1000 -2 0)
    (0 -1 0)
    (0 -1 1)
    (1000 -1 1)
    (1000 -1 0)
    (0 0 0)
    (0 0 1)
    (1000 0 1)
    (1000 0 0)
    (0 1 0)
    (0 1 1)
    (1000 1 1)
    (1000 1 0)
    (0 2 0)
    (0 2 1)
    (1000 2 1)
    (1000 2 0)
    (0 3 0)
    (0 3 1)
    (1000 3 1)
    (1000 3 0)
    (0 4 0)
    (0 4 1)
    (1000 4 1)
    (1000 4 0)
    (0 5 0)
    (0 5 1)
    (1000 5 1)
    (1000 5 0)
    (0 6 0)
    (0 6 1)
    (1000 6 1)
    (1000 6 0)
    (0 7 0)
    (0 7 1)
    (1000 7 1)
    (1000 7 0)
    (0 8 0)
    (0 8 1)
    (1000 8 1)
    (1000 8 0)
    (0 9 0)
    (0 9 1)
    (1000 9 1)
    (1000 9 0)
    (0 10 0)
    (0 10 1)
    (1000 10 1)
    (1000 10 0)
    (0 11 0)
    (0 11 1)
    (1000 11 1)
    (1000 11 0)
    (0 12 0)
    (0 12 1)
    (1000 12 1)
    (1000 12 0)
    (0 13 0)
    (0 13 1)
    (1000 13 1)
    (1000 13 0)
    (0 14 0)
    (0 14 1)
    (1000 14 1)
    (1000 14 0)
    (0 15 0)
    (0 15 1)
    (1000 15 1)
    (1000 15 0)
    (0 16 0)
    (0 16 1)
    (1000 16 1)
    (1000 16 0)
    (0 17 0)
    (0 17 1)
    (1000 17 1)
    (1000 17 0)
    (0 18 0)
    (0 18 1)
    (1000 18 1)
    (1000 18 0)
    (0 19 0)
    (0 19 1)
    (1000 19 1)
    (1000 19 0)
    (0 20 0)
    (0 20 1)
    (1000 20 1)
    (1000 20 0)
    (0 21 0)
    (0 21 1)
    (1000 21 1)
    (1000 21 0)
    (0 22 0)
    (0 22 1)
    (1000 22 1)
    (1000 22 0)
    (0 23 0)
    (0 23 1)
    (1000 23 1)
    (1000 23 0)
    (0 24 0)
    (0 24 1)
    (1000 24 1)
    (1000 24 0)
    (0 25 0)
    (0 25 1)
    (1000 25 1)
    (1000 25 0)
    (0 26 0)
    (0 26 1)
    (1000 26 1)
    (1000 26 0)
    (0 27 0)
    (0 27 1)
    (1000 27 1)
    (1000 27 0)
    (0 28 0)
    (0 28 1)
    (1000 28 1)
    (1000 28 0)
    (0 29 0)
    (0 29 1)
    (1000 29 1)
    (1000 29 0)
    (0 30 0)
    (0 30 1)
    (1000 30 1)
    (1000 30 0)
    (0 31 0)
    (0 31 1)
    (1000 31 1)
    (1000 31 0)
    (0 32 0)
    (0 32 1)
    (1000 32 1)
    (1000 32 0)
    (0 33 0)
    (0 33 1)
    (1000 33 1)
    (1000 33 0)
    (0 34 0)
    (0 34 1)
    (1000 34 1)
    (1000 34 0)
    (0 35 0)
    (0 35 1)
    (1000 35 1)
    (1000 35 0)
    (0 36 0)
    (0 36 1)
    (1000 36 1)
    (1000 36 0)
    (0 37 0)
    (0 37 1)
    (1000 37 1)
    (1000 37 0)
    (0 38 0)
    (0 38 1)
    (1000 38 1)
    (1000 38 0)
    (0 39 0)
    (0 39 1)
    (1000 39 1)
    (1000 39 0)
    (0 40 0)
    (0 40 1)
    (1000 40 1)
    (1000 40 0)
    (0 41 0)
    (0 41 1)
    (1000 41 1)
    (1000 41 0)
);

blocks
(
   hex (0 1 2 3 4 5 6 7) (100 10 1) simpleGrading (1 1 1)
   hex (4 5 6 7 8 9 10 11) (100 10 1) simpleGrading (1 1 1)
   hex (8 9 10 11 12 13 14 15) (100 10 1) simpleGrading (1 1 1)
   hex (12 13 14 15 16 17 18 19) (100 10 1) simpleGrading (1 1 1)
   hex (16 17 18 19 20 21 22 23) (100 10 1) simpleGrading (1 1 1)
   hex (20 21 22 23 24 25 26 27) (100 10 1) simpleGrading (1 1 1)
   hex (24 25 26 27 28 29 30 31) (100 10 1) simpleGrading (1 1 1)
   hex (28 29 30 31 32 33 34 35) (100 10 1) simpleGrading (1 1 1)
   hex (32 33 34 35 36 37 38 39) (100 10 1) simpleGrading (1 1 1)
   hex (36 37 38 39 40 41 42 43) (100 10 1) simpleGrading (1 1 1)
   hex (40 41 42 43 44 45 46 47) (100 10 1) simpleGrading (1 1 1)
   hex (44 45 46 47 48 49 50 51) (100 10 1) simpleGrading (1 1 1)
   hex (48 49 50 51 52 53 54 55) (100 10 1) simpleGrading (1 1 1)
   hex (52 53 54 55 56 57 58 59) (100 10 1) simpleGrading (1 1 1)
   hex (56 57 58 59 60 61 62 63) (100 10 1) simpleGrading (1 1 1)
   hex (60 61 62 63 64 65 66 67) (100 10 1) simpleGrading (1 1 1)
   hex (64 65 66 67 68 69 70 71) (100 10 1) simpleGrading (1 1 1)
   hex (68 69 70 71 72 73 74 75) (100 10 1) simpleGrading (1 1 1)
   hex (72 73 74 75 76 77 78 79) (100 10 1) simpleGrading (1 1 1)
   hex (76 77 78 79 80 81 82 83) (100 10 1) simpleGrading (1 1 1)
   hex (80 81 82 83 84 85 86 87) (100 10 1) simpleGrading (1 1 1)
   hex (84 85 86 87 88 89 90 91) (100 10 1) simpleGrading (1 1 1)
   hex (88 89 90 91 92 93 94 95) (100 10 1) simpleGrading (1 1 1)
   hex (92 93 94 95 96 97 98 99) (100 10 1) simpleGrading (1 1 1)
   hex (96 97 98 99 100 101 102 103) (100 10 1) simpleGrading (1 1 1)
   hex (100 101 102 103 104 105 106 107) (100 10 1) simpleGrading (1 1 1)
   hex (104 105 106 107 108 109 110 111) (100 10 1) simpleGrading (1 1 1)
   hex (108 109 110 111 112 113 114 115) (100 10 1) simpleGrading (1 1 1)
   hex (112 113 114 115 116 117 118 119) (100 10 1) simpleGrading (1 1 1)
   hex (116 117 118 119 120 121 122 123) (100 10 1) simpleGrading (1 1 1)
   hex (120 121 122 123 124 125 126 127) (100 10 1) simpleGrading (1 1 1)
   hex (124 125 126 127 128 129 130 131) (100 10 1) simpleGrading (1 1 1)
   hex (128 129 130 131 132 133 134 135) (100 10 1) simpleGrading (1 1 1)
   hex (132 133 134 135 136 137 138 139) (100 10 1) simpleGrading (1 1 1)
   hex (136 137 138 139 140 141 142 143) (100 10 1) simpleGrading (1 1 1)
   hex (140 141 142 143 144 145 146 147) (100 10 1) simpleGrading (1 1 1)
   hex (144 145 146 147 148 149 150 151) (100 10 1) simpleGrading (1 1 1)
   hex (148 149 150 151 152 153 154 155) (100 10 1) simpleGrading (1 1 1)
   hex (152 153 154 155 156 157 158 159) (100 10 1) simpleGrading (1 1 1)
   hex (156 157 158 159 160 161 162 163) (100 10 1) simpleGrading (1 1 1)
   hex (160 161 162 163 164 165 166 167) (100 10 1) simpleGrading (1 1 1)
   hex (164 165 166 167 168 169 170 171) (100 10 1) simpleGrading (1 1 1)
   hex (168 169 170 171 172 173 174 175) (100 10 1) simpleGrading (1 1 1)
   hex (172 173 174 175 176 177 178 179) (100 10 1) simpleGrading (1 1 1)
   hex (176 177 178 179 180 181 182 183) (100 10 1) simpleGrading (1 1 1)
   hex (180 181 182 183 184 185 186 187) (100 10 1) simpleGrading (1 1 1)
   hex (184 185 186 187 188 189 190 191) (100 10 1) simpleGrading (1 1 1)
   hex (188 189 190 191 192 193 194 195) (100 10 1) simpleGrading (1 1 1)
   hex (192 193 194 195 196 197 198 199) (100 10 1) simpleGrading (1 1 1)
   hex (196 197 198 199 200 201 202 203) (100 10 1) simpleGrading (1 1 1)
   hex (200 201 202 203 204 205 206 207) (100 10 1) simpleGrading (1 1 1)
   hex (204 205 206 207 208 209 210 211) (100 10 1) simpleGrading (1 1 1)
   hex (208 209 210 211 212 213 214 215) (100 10 1) simpleGrading (1 1 1)
   hex (212 213 214 215 216 217 218 219) (100 10 1) simpleGrading (1 1 1)
   hex (216 217 218 219 220 221 222 223) (100 10 1) simpleGrading (1 1 1)
   hex (220 221 222 223 224 225 226 227) (100 10 1) simpleGrading (1 1 1)
   hex (224 225 226 227 228 229 230 231) (100 10 1) simpleGrading (1 1 1)
   hex (228 229 230 231 232 233 234 235) (100 10 1) simpleGrading (1 1 1)
   hex (232 233 234 235 236 237 238 239) (100 10 1) simpleGrading (1 1 1)
   hex (236 237 238 239 240 241 242 243) (100 10 1) simpleGrading (1 1 1)
   hex (240 241 242 243 244 245 246 247) (100 10 1) simpleGrading (1 1 1)
   hex (244 245 246 247 248 249 250 251) (100 10 1) simpleGrading (1 1 1)
   hex (248 249 250 251 252 253 254 255) (100 10 1) simpleGrading (1 1 1)
   hex (252 253 254 255 256 257 258 259) (100 10 1) simpleGrading (1 1 1)
   hex (256 257 258 259 260 261 262 263) (100 10 1) simpleGrading (1 1 1)
   hex (260 261 262 263 264 265 266 267) (100 10 1) simpleGrading (1 1 1)
   hex (264 265 266 267 268 269 270 271) (100 10 1) simpleGrading (1 1 1)
   hex (268 269 270 271 272 273 274 275) (100 10 1) simpleGrading (1 1 1)
   hex (272 273 274 275 276 277 278 279) (100 10 1) simpleGrading (1 1 1)
   hex (276 277 278 279 280 281 282 283) (100 10 1) simpleGrading (1 1 1)
   hex (280 281 282 283 284 285 286 287) (100 10 1) simpleGrading (1 1 1)
   hex (284 285 286 287 288 289 290 291) (100 10 1) simpleGrading (1 1 1)
   hex (288 289 290 291 292 293 294 295) (100 10 1) simpleGrading (1 1 1)
   hex (292 293 294 295 296 297 298 299) (100 10 1) simpleGrading (1 1 1)
   hex (296 297 298 299 300 301 302 303) (100 10 1) simpleGrading (1 1 1)
   hex (300 301 302 303 304 305 306 307) (100 10 1) simpleGrading (1 1 1)
   hex (304 305 306 307 308 309 310 311) (100 10 1) simpleGrading (1 1 1)
   hex (308 309 310 311 312 313 314 315) (100 10 1) simpleGrading (1 1 1)
   hex (312 313 314 315 316 317 318 319) (100 10 1) simpleGrading (1 1 1)
   hex (316 317 318 319 320 321 322 323) (100 10 1) simpleGrading (1 1 1)
   hex (320 321 322 323 324 325 326 327) (100 10 1) simpleGrading (1 1 1)
);
                   
edges
(
);

boundary 
(
inlet
{
    type patch;
    faces
    (
           (160 161 165 164)
    );
}
 
outlet
{
    type patch;
    faces
    (
           (2 3 7 6)
           (6 7 11 10)
           (10 11 15 14)
           (14 15 19 18)
           (18 19 23 22)
           (22 23 27 26)
           (26 27 31 30)
           (30 31 35 34)
           (34 35 39 38)
           (38 39 43 42)
           (42 43 47 46)
           (46 47 51 50)
           (50 51 55 54)
           (54 55 59 58)
           (58 59 63 62)
           (62 63 67 66)
           (66 67 71 70)
           (70 71 75 74)
           (74 75 79 78)
           (78 79 83 82)
           (82 83 87 86)
           (86 87 91 90)
           (90 91 95 94)
           (94 95 99 98)
           (98 99 103 102)
           (102 103 107 106)
           (106 107 111 110)
           (110 111 115 114)
           (114 115 119 118)
           (118 119 123 122)
           (122 123 127 126)
           (126 127 131 130)
           (130 131 135 134)
           (134 135 139 138)
           (138 139 143 142)
           (142 143 147 146)
           (146 147 151 150)
           (150 151 155 154)
           (154 155 159 158)
           (158 159 163 162)
           (162 163 167 166)
           (166 167 171 170)
           (170 171 175 174)
           (174 175 179 178)
           (178 179 183 182)
           (182 183 187 186)
           (186 187 191 190)
           (190 191 195 194)
           (194 195 199 198)
           (198 199 203 202)
           (202 203 207 206)
           (206 207 211 210)
           (210 211 215 214)
           (214 215 219 218)
           (218 219 223 222)
           (222 223 227 226)
           (226 227 231 230)
           (230 231 235 234)
           (234 235 239 238)
           (238 239 243 242)
           (242 243 247 246)
           (246 247 251 250)
           (250 251 255 254)
           (254 255 259 258)
           (258 259 263 262)
           (262 263 267 266)
           (266 267 271 270)
           (270 271 275 274)
           (274 275 279 278)
           (278 279 283 282)
           (282 283 287 286)
           (286 287 291 290)
           (290 291 295 294)
           (294 295 299 298)
           (298 299 303 302)
           (302 303 307 306)
           (306 307 311 310)
           (310 311 315 314)
           (314 315 319 318)
           (318 319 323 322)
           (322 323 327 326)

    );
}
 
freestreamInlet
{
    type patch;
    faces
    (
           (0 1 5 4)
           (4 5 9 8)
           (8 9 13 12)
           (12 13 17 16)
           (16 17 21 20)
           (20 21 25 24)
           (24 25 29 28)
           (28 29 33 32)
           (32 33 37 36)
           (36 37 41 40)
           (40 41 45 44)
           (44 45 49 48)
           (48 49 53 52)
           (52 53 57 56)
           (56 57 61 60)
           (60 61 65 64)
           (64 65 69 68)
           (68 69 73 72)
           (72 73 77 76)
           (76 77 81 80)
           (80 81 85 84)
           (84 85 89 88)
           (88 89 93 92)
           (92 93 97 96)
           (96 97 101 100)
           (100 101 105 104)
           (104 105 109 108)
           (108 109 113 112)
           (112 113 117 116)
           (116 117 121 120)
           (120 121 125 124)
           (124 125 129 128)
           (128 129 133 132)
           (132 133 137 136)
           (136 137 141 140)
           (140 141 145 144)
           (144 145 149 148)
           (148 149 153 152)
           (152 153 157 156)
           (156 157 161 160)
           (164 165 169 168)
           (168 169 173 172)
           (172 173 177 176)
           (176 177 181 180)
           (180 181 185 184)
           (184 185 189 188)
           (188 189 193 192)
           (192 193 197 196)
           (196 197 201 200)
           (200 201 205 204)
           (204 205 209 208)
           (208 209 213 212)
           (212 213 217 216)
           (216 217 221 220)
           (220 221 225 224)
           (224 225 229 228)
           (228 229 233 232)
           (232 233 237 236)
           (236 237 241 240)
           (240 241 245 244)
           (244 245 249 248)
           (248 249 253 252)
           (252 253 257 256)
           (256 257 261 260)
           (260 261 265 264)
           (264 265 269 268)
           (268 269 273 272)
           (272 273 277 276)
           (276 277 281 280)
           (280 281 285 284)
           (284 285 289 288)
           (288 289 293 292)
           (292 293 297 296)
           (296 297 301 300)
           (300 301 305 304)
           (304 305 309 308)
           (308 309 313 312)
           (312 313 317 316)
           (316 317 321 320)
           (320 321 325 324)

    );
}
 
freestream
{
    type patch;
    faces
    (
           (0 1 2 3)
           (324 325 326 327)
        
    );
    }
   
    frontback
    {
   	type empty;
   	faces
   	(
           (1 2 6 5)
           (5 6 10 9)
           (9 10 14 13)
           (13 14 18 17)
           (17 18 22 21)
           (21 22 26 25)
           (25 26 30 29)
           (29 30 34 33)
           (33 34 38 37)
           (37 38 42 41)
           (41 42 46 45)
           (45 46 50 49)
           (49 50 54 53)
           (53 54 58 57)
           (57 58 62 61)
           (61 62 66 65)
           (65 66 70 69)
           (69 70 74 73)
           (73 74 78 77)
           (77 78 82 81)
           (81 82 86 85)
           (85 86 90 89)
           (89 90 94 93)
           (93 94 98 97)
           (97 98 102 101)
           (101 102 106 105)
           (105 106 110 109)
           (109 110 114 113)
           (113 114 118 117)
           (117 118 122 121)
           (121 122 126 125)
           (125 126 130 129)
           (129 130 134 133)
           (133 134 138 137)
           (137 138 142 141)
           (141 142 146 145)
           (145 146 150 149)
           (149 150 154 153)
           (153 154 158 157)
           (157 158 162 161)
           (161 162 166 165)
           (165 166 170 169)
           (169 170 174 173)
           (173 174 178 177)
           (177 178 182 181)
           (181 182 186 185)
           (185 186 190 189)
           (189 190 194 193)
           (193 194 198 197)
           (197 198 202 201)
           (201 202 206 205)
           (205 206 210 209)
           (209 210 214 213)
           (213 214 218 217)
           (217 218 222 221)
           (221 222 226 225)
           (225 226 230 229)
           (229 230 234 233)
           (233 234 238 237)
           (237 238 242 241)
           (241 242 246 245)
           (245 246 250 249)
           (249 250 254 253)
           (253 254 258 257)
           (257 258 262 261)
           (261 262 266 265)
           (265 266 270 269)
           (269 270 274 273)
           (273 274 278 277)
           (277 278 282 281)
           (281 282 286 285)
           (285 286 290 289)
           (289 290 294 293)
           (293 294 298 297)
           (297 298 302 301)
           (301 302 306 305)
           (305 306 310 309)
           (309 310 314 313)
           (313 314 318 317)
           (317 318 322 321)
           (321 322 326 325)
// outfaces
           (0 3 7 4)
           (4 7 11 8)
           (8 11 15 12)
           (12 15 19 16)
           (16 19 23 20)
           (20 23 27 24)
           (24 27 31 28)
           (28 31 35 32)
           (32 35 39 36)
           (36 39 43 40)
           (40 43 47 44)
           (44 47 51 48)
           (48 51 55 52)
           (52 55 59 56)
           (56 59 63 60)
           (60 63 67 64)
           (64 67 71 68)
           (68 71 75 72)
           (72 75 79 76)
           (76 79 83 80)
           (80 83 87 84)
           (84 87 91 88)
           (88 91 95 92)
           (92 95 99 96)
           (96 99 103 100)
           (100 103 107 104)
           (104 107 111 108)
           (108 111 115 112)
           (112 115 119 116)
           (116 119 123 120)
           (120 123 127 124)
           (124 127 131 128)
           (128 131 135 132)
           (132 135 139 136)
           (136 139 143 140)
           (140 143 147 144)
           (144 147 151 148)
           (148 151 155 152)
           (152 155 159 156)
           (156 159 163 160)
           (160 163 167 164)
           (164 167 171 168)
           (168 171 175 172)
           (172 175 179 176)
           (176 179 183 180)
           (180 183 187 184)
           (184 187 191 188)
           (188 191 195 192)
           (192 195 199 196)
           (196 199 203 200)
           (200 203 207 204)
           (204 207 211 208)
           (208 211 215 212)
           (212 215 219 216)
           (216 219 223 220)
           (220 223 227 224)
           (224 227 231 228)
           (228 231 235 232)
           (232 235 239 236)
           (236 239 243 240)
           (240 243 247 244)
           (244 247 251 248)
           (248 251 255 252)
           (252 255 259 256)
           (256 259 263 260)
           (260 263 267 264)
           (264 267 271 268)
           (268 271 275 272)
           (272 275 279 276)
           (276 279 283 280)
           (280 283 287 284)
           (284 287 291 288)
           (288 291 295 292)
           (292 295 299 296)
           (296 299 303 300)
           (300 303 307 304)
           (304 307 311 308)
           (308 311 315 312)
           (312 315 319 316)
           (316 319 323 320)
           (320 323 327 324)
        
    );
}

);

mergePatchPairs
(
);


// ************************************************************************* //