/*--------------------------------*- C++ -*----------------------------------*\
| =========                 |                                                 |
| \\      /  F ield         | OpenFOAM: The Open Source CFD Toolbox           |
|  \\    /   O peration     | Version:  2406                                  |
|   \\  /    A nd           | Website:  www.openfoam.com                      |
|    \\/     M anipulation  |                                                 |
\*---------------------------------------------------------------------------*/
FoamFile
{
    version     2.0;
    format      ascii;
    arch        "LSB;label=32;scalar=64";
    class       polyBoundaryMesh;
    location    "constant/polyMesh";
    object      boundary;
}
// * * * * * * * * * * * * * * * * * * * * * * * * * * * * * * * * * * * * * //

9
(
    FreestreamLeft
    {
        type            patch;
        nFaces          0;
        startFace       34509;
    }
    FreestreamTop
    {
        type            patch;
        nFaces          216;
        startFace       34509;
    }
    Inlet
    {
        type            patch;
        nFaces          0;
        startFace       34725;
    }
    Outlet
    {
        type            patch;
        nFaces          0;
        startFace       34725;
    }
    Wall
    {
        type            wall;
        inGroups        1(wall);
        nFaces          0;
        startFace       34725;
    }
    Wedge1
    {
        type            wedge;
        inGroups        1(wedge);
        nFaces          6973;
        startFace       34725;
    }
    Wedge2
    {
        type            wedge;
        inGroups        1(wedge);
        nFaces          6973;
        startFace       41698;
    }
    procBoundary5to3
    {
        type            processor;
        inGroups        1(processor);
        nFaces          178;
        startFace       48671;
        matchTolerance  0.0001;
        transform       unknown;
        myProcNo        5;
        neighbProcNo    3;
    }
    procBoundary5to4
    {
        type            processor;
        inGroups        1(processor);
        nFaces          148;
        startFace       48849;
        matchTolerance  0.0001;
        transform       unknown;
        myProcNo        5;
        neighbProcNo    4;
    }
)

// ************************************************************************* //
